LAMMPS (15 Sep 2022)
package gpu 0 binsize 12.0
# LAMMPS Script for deform
# Generated 12/17/2022

# INIT PARAMS & READ CONF
include   "/work_bgfs/h/harshad/simulation_9/quiescent_script/filler_repulsive/system.init"
# UNITS
units		lj
dimension	3
atom_style	bond

# INPUT FILE
pair_style	lj/cut 2.5
bond_style	hybrid harmonic fene
read_data /work_bgfs/h/harshad/simulation_9/np7/5000chain/150phr/9_stretching/filler_repulsive/quiescent/thermal_replicates/2.npt.data
Reading data file ...
  orthogonal box = (0.40585031 0.40585031 0.40585031) to (59.59415 59.59415 59.59415)
  reading atoms ...
  225980 atoms
  reading velocities ...
  225980 velocities
  scanning bonds ...
  reading bonds ...
  923860 bonds
Finding 1-2 1-3 1-4 neighbors ...
    19 = max # of 1-2 neighbors
   285 = max # of 1-3 neighbors
   201 = max # of special neighbors
include   "/work_bgfs/h/harshad/simulation_9/quiescent_script/filler_repulsive/system.kappa1000.settings"
# ATOM TYPE
mass  1  1.0 #backbone
mass  2  1.0 #endmer
mass  3  1.0 #crosslinker
mass  4  1.0 #outer shell
mass  5  1.0 #inner shell 2
mass  6  1.0 #inner-most shell
mass  7  1.0 #center bead
mass  8  1.0 #endmer post crosslinking
mass  9  1.0 #crosslinker post crosslinking

# BOND
bond_coeff 1 harmonic 1000 0.951057
bond_coeff 2 harmonic 1000 1.000000
bond_coeff 3 harmonic 1000 1.380039
bond_coeff 4 harmonic 1000 1.414214
bond_coeff 5 fene 30.0 1.50 1.0 1.0
special_bonds lj 0.0 1.0 1.0
Finding 1-2 1-3 1-4 neighbors ...
    19 = max # of 1-2 neighbors
   285 = max # of 1-3 neighbors
   201 = max # of special neighbors

# PAIR
variable rcut equal 2^(1/6)
pair_coeff  1*3 1*9 1 1
pair_coeff  4*7 4*7 1 1 1.12246204830937
pair_coeff  4*9 8*9 1 1

pair_modify  shift yes
neigh_modify delay 1 check yes

# MAKE GROUPS
group polymer type 1 2 3 8 9
102500 atoms in group polymer
#group ins     type 1
#group strand  type 1 2 8
#group ends    type 2 8
#group xlinks  type 3 9
group filler  type 4 5 6 7
123480 atoms in group filler

neighbor 1.5 multi
comm_modify     mode multi cutoff/multi 1 1.5 cutoff/multi * 2.8

# INPUTS FROM SBATCH
variable Temp          equal 1.0
variable gamma_total   equal 2.0
variable gamma_rate    equal 0.00005
variable dt            equal 0.001
variable Nfreq         equal 4000
variable Nrepeat_2     equal 100
variable Nevery_1      equal 1
variable Nrepeat_1     equal 1

variable Run           equal 2/5e-05/0.001

# RUN OPTIONS
run_style verlet
timestep  0.001

# RESTART
restart  4000 cycle.1.restart cycle.2.restart

# SAVE RESTARTS EVERY 10% EXTENSION
variable RestFreq      equal 0.1/5e-05/0.001
restart  2000000 deform.*.restart

# COMPUTE ke/atom, pe/atom, pxx/atom, position and time-avg
compute     ke_atm          all     ke/atom
compute     p_atm           all     stress/atom NULL
compute     pe_atm          all     pe/atom
compute     ebond_atm       all     pe/atom bond
compute     posit_atm       all     property/atom x y z
fix         avg_ke_atm_1    all     ave/atom 1 1 4000 c_ke_atm
fix         avg_pxx_atm_1   all     ave/atom 1 1 4000 c_p_atm[*]
fix         avg_pe_atm_1    all     ave/atom 1 1 4000 c_pe_atm
dump        dump_1 all custom 4000 /shares_bgfs/dssimmons_data/harshad/deform/np7/150phr/filler_repulsive/replicate_2/work_bgfs--h--harshad--simulation_9--np7--5000chain--150phr--9_stretching--filler_repulsive--replicate_2--traj.1_1_4000.xyz mol type x y z f_avg_ke_atm_1 f_avg_pe_atm_1 f_avg_pxx_atm_1[*]
dump_modify dump_1 append yes sort id

# COMPUTE a separate pe and ke for each group, AVG & SAVE
compute   pe_polymer    polymer reduce  sum c_pe_atm
compute   pe_filler     filler  reduce  sum c_pe_atm
compute   ebond_polymer polymer reduce  sum c_ebond_atm
compute   ebond_filler  filler  reduce  sum c_ebond_atm
compute   ke_polymer    polymer reduce  sum c_ke_atm
compute   ke_filler     filler  reduce  sum c_ke_atm
compute   pxx_polymer   polymer reduce  sum c_p_atm[1] c_p_atm[2] c_p_atm[3]
compute   pxx_filler    filler  reduce  sum c_p_atm[1] c_p_atm[2] c_p_atm[3]
compute   pxy_polymer   polymer reduce  sum c_p_atm[4] c_p_atm[5] c_p_atm[6]
compute   pxy_filler    filler  reduce  sum c_p_atm[4] c_p_atm[5] c_p_atm[6]
#compute   pxx_all       all     reduce  sum c_p_atm
fix 		  avgEnergy     all     ave/time 1 100 4000 c_pe_polymer c_ke_polymer c_ebond_polymer c_pe_filler c_ke_filler c_ebond_filler c_pxy_polymer[1] c_pxy_polymer[2] c_pxy_polymer[3] c_pxy_filler[1] c_pxy_filler[2] c_pxy_filler[3]   file energy.avg.csv
fix       avgPxx_all    all     ave/time 1 4000 4000     c_pxx_polymer[1] c_pxx_polymer[2] c_pxx_polymer[3] c_pxx_filler[1] c_pxx_filler[2] c_pxx_filler[3]                                                                                    file pxx.all.avg.csv

# TIME-AVG Ly
variable Ly equal ly
fix       avgLy         all     ave/time 1 4000 4000     v_Ly  file Ly.avg.csv

# SIMULATION FIXES
fix  npt        all npt temp 1 1 2.0 y 0 0 5 z 0 0 5 couple yz
fix  mom        all momentum 10000 linear 1 1 1
fix  deform     all deform 1 x erate 5e-05 remap x units box

# THERMO
variable  thermo_frq equal 4000
thermo    4000
thermo_style  custom step time temp press pe ke ebond etotal epair ecouple lx ly lz pxx pyy pzz pxy pxz pyz cpu cpuremain

# deform
run 40000000

CITE-CITE-CITE-CITE-CITE-CITE-CITE-CITE-CITE-CITE-CITE-CITE-CITE

Your simulation uses code contributions which should be cited:

- GPU package (short-range, long-range and three-body potentials): doi:10.1016/j.cpc.2010.12.021, doi:10.1016/j.cpc.2011.10.012, doi:10.1016/j.cpc.2013.08.002, doi:10.1016/j.commatsci.2014.10.068, doi:10.1016/j.cpc.2016.10.020, doi:10.3233/APC200086

@Article{Brown11,
 author = {W. M. Brown and P. Wang and S. J. Plimpton and A. N. Tharrington},
 title = {Implementing Molecular Dynamics on Hybrid High Performance Computers---Short Range Forces},
 journal = {Comput.\ Phys.\ Commun.},
 year =    2011,
 volume =  182,
 pages =   {898--911},
 doi =     {10.1016/j.cpc.2010.12.021}
}

@Article{Brown12,
 author = {W. M. Brown and A. Kohlmeyer and S. J. Plimpton and A. N. Tharrington},
 title = {Implementing Molecular Dynamics on Hybrid High Performance Computers - Particle-Particle Particle-Mesh},
 journal = {Comput.\ Phys.\ Commun.},
 year =    2012,
 volume =  183,
 doi =     {10.1016/j.cpc.2011.10.012},
 pages =   {449--459}
}

@Article{Brown13,
 author = {W. M. Brown and Y. Masako},
 title = {Implementing Molecular Dynamics on Hybrid High Performance Computers---Three-Body Potentials},
 journal = {Comput.\ Phys.\ Commun.},
 year =    2013,
 volume =  184,
 pages =   {2785--2793},
 doi =     {10.1016/j.cpc.2013.08.002},
}

@Article{Trung15,
 author = {T. D. Nguyen and S. J. Plimpton},
 title = {Accelerating Dissipative Particle Dynamics Simulations for Soft Matter Systems},
 journal = {Comput.\ Mater.\ Sci.},
 year =    2015,
 doi =     {10.1016/j.commatsci.2014.10.068},
 volume =  100,
 pages =   {173--180}
}

@Article{Trung17,
 author = {T. D. Nguyen},
 title = {{GPU}-Accelerated {T}ersoff Potentials for Massively Parallel
    Molecular Dynamics Simulations},
 journal = {Comput.\ Phys.\ Commun.},
 year =    2017,
 doi =     {10.1016/j.cpc.2016.10.020},
 volume =  212,
 pages =   {113--122}
}

@inproceedings{Nikolskiy19,
 author = {V. Nikolskiy and V. Stegailov},
 title = {{GPU} Acceleration of Four-Site Water Models in {LAMMPS}},
 booktitle = {Proceedings of the International Conference on Parallel
    Computing (ParCo 2019), Prague, Czech Republic},
 doi =     {10.3233/APC200086},
 year =    2019
}

- neighbor multi command: doi:10.1016/j.cpc.2008.03.005, doi:10.1007/s40571-020-00361-2

@Article{Intveld08,
 author =  {in 't Veld, P. J. and S. J.~Plimpton and G. S. Grest},
 title =   {Accurate and Efficient Methods for Modeling Colloidal
            Mixtures in an Explicit Solvent using Molecular Dynamics},
 journal = {Comput.\ Phys.\ Commut.},
 year =    2008,
 volume =  179,
 pages =   {320--329}
}

@article{Shire2020,
 author = {Shire, Tom and Hanley, Kevin J. and Stratford, Kevin},
 title = {{DEM} Simulations of Polydisperse Media: Efficient Contact
          Detection Applied to Investigate the Quasi-Static Limit},
 journal = {Computational Particle Mechanics},
 year = {2020}
}

CITE-CITE-CITE-CITE-CITE-CITE-CITE-CITE-CITE-CITE-CITE-CITE-CITE

Generated 0 of 36 mixed pair_coeff terms from geometric mixing rule
Step          Time           Temp          Press          PotEng         KinEng         E_bond         TotEng         E_pair        Ecouple           Lx             Ly             Lz            Pxx            Pyy            Pzz            Pxy            Pxz            Pyz            CPU          CPULeft
0   0              1.0004465     -0.01198911     7.5895067      1.5006632      10.39407       9.0901699     -2.8045633      0              59.188299      59.188299      59.188299      0.017700881    0.014018205   -0.067686417   -0.012070056    0.01356225    -0.017854588    0              0
Averages over the last 5001 of 10001 rows, steps 20000000 to 40000000:
Temp Press PotEng KinEng E_bond TotEng E_pair Ecouple Lx Ly Lz Pxx Pyy Pzz Pxy Pxz Pyz
1.00005 -0.192954 7.72654 1.50006 10.4046 9.2266 -2.67809 255192 147.971 38.0495 38.0495 -0.578354 0.00843353 -0.00894077 0.0370446 0.000551133 -0.0191124
Loop time of 317821 on 18 procs for 40000000 steps with 225980 atoms

# GENERATION RESTART
write_restart ./out.deform.restart
System init for write_restart ...
Generated 0 of 36 mixed pair_coeff terms from geometric mixing rule
write_data    ./out.deform.data pair ij
System init for write_data ...
Generated 0 of 36 mixed pair_coeff terms from geometric mixing rule
